<additional>

   <inductionLoop id="0" lane="5028958#4.250_0" pos="50" freq="500" file="ind.out.xml" vType="roadtaxrenew"/>
   <inductionLoop id="1" lane="5028958#4.250_0" pos="50" freq="500" file="ind.out.xml" vType="roadtaxrenew"/>
   <inductionLoop id="2" lane="5028958#4.250_0" pos="50" freq="500" file="ind.out.xml" vType="roadtaxrenew"/>
   <inductionLoop id="3" lane="5028958#4.250_0" pos="50" freq="500" file="ind.out.xml" vType="roadtaxrenew"/>
   <inductionLoop id="4" lane="5028958#4.250_1" pos="50" freq="500" file="ind.out.xml" vType="expiredroadtax"/>

   <inductionLoop id="5" lane="5028958#4.250_0" pos="50" freq="500" file="ind.out.xml" vType="roadtaxrenew"/>
   <inductionLoop id="6" lane="5028958#4.250_0" pos="50" freq="500" file="ind.out.xml" vType="roadtaxrenew"/>
   <inductionLoop id="7" lane="5028958#4.250_0" pos="50" freq="500" file="ind.out.xml" vType="roadtaxrenew"/>
   <inductionLoop id="8" lane="5028958#4.250_0" pos="50" freq="500" file="ind.out.xml" vType="roadtaxrenew"/>
   <inductionLoop id="9" lane="5028958#4.250_1" pos="50" freq="500" file="ind.out.xml" vType="expiredroadtax"/>

   <inductionLoop id="10" lane="5028958#4.250_0" pos="50" freq="500" file="ind.out.xml" vType="roadtaxrenew"/>
   <inductionLoop id="11" lane="5028958#4.250_0" pos="50" freq="500" file="ind.out.xml" vType="roadtaxrenew"/>
   <inductionLoop id="12" lane="5028958#4.250_0" pos="50" freq="500" file="ind.out.xml" vType="roadtaxrenew"/>
   <inductionLoop id="13" lane="5028958#4.250_0" pos="50" freq="500" file="ind.out.xml" vType="roadtaxrenew"/>
   <inductionLoop id="14" lane="5028958#4.250_0" pos="50" freq="500" file="ind.out.xml" vType="roadtaxrenew"/>

</additional>
